/*--------------------------------*- C++ -*----------------------------------*\
  =========                 |
  \\      /  F ield         | OpenFOAM: The Open Source CFD Toolbox
   \\    /   O peration     | Website:  https://openfoam.org
    \\  /    A nd           | Version:  7
     \\/     M anipulation  |
\*---------------------------------------------------------------------------*/
FoamFile
{
    version     2.0;
    format      ascii;
    class       polyBoundaryMesh;
    location    "constant/polyMesh";
    object      boundary;
}
// * * * * * * * * * * * * * * * * * * * * * * * * * * * * * * * * * * * * * //

5
(
    down
    {
        type            wall;
        inGroups        List<word> 1(wall);
        nFaces          1600;
        startFace       470400;
    }
    top
    {
        type            wall;
        inGroups        List<word> 1(wall);
        nFaces          1600;
        startFace       472000;
    }
    left
    {
        type            wall;
        inGroups        List<word> 1(wall);
        nFaces          4000;
        startFace       473600;
    }
    right
    {
        type            wall;
        inGroups        List<word> 1(wall);
        nFaces          4000;
        startFace       477600;
    }
    frontAndBack
    {
        type            wall;
        inGroups        List<word> 1(wall);
        nFaces          8000;
        startFace       481600;
    }
)

// ************************************************************************* //
